{
  "history": {
    "cases": [
      {
        "name": "Case_1",
        "stages": [
          1,
          2,
          3,
          4,
          5
        ]
      }
    ],
    "stages": [
      {
        "name": "rccm01b.comm",
        "text": "# ======================================================================\n# COPYRIGHT (C) 1991 - 2016  EDF R&D                  WWW.CODE-ASTER.ORG\n# THIS PROGRAM IS FREE SOFTWARE; YOU CAN REDISTRIBUTE IT AND/OR MODIFY\n# IT UNDER THE TERMS OF THE GNU GENERAL PUBLIC LICENSE AS PUBLISHED BY\n# THE FREE SOFTWARE FOUNDATION; EITHER VERSION 2 OF THE LICENSE, OR\n# (AT YOUR OPTION) ANY LATER VERSION.\n# \n# THIS PROGRAM IS DISTRIBUTED IN THE HOPE THAT IT WILL BE USEFUL, BUT\n# WITHOUT ANY WARRANTY; WITHOUT EVEN THE IMPLIED WARRANTY OF\n# MERCHANTABILITY OR FITNESS FOR A PARTICULAR PURPOSE. SEE THE GNU\n# GENERAL PUBLIC LICENSE FOR MORE DETAILS.\n# \n# YOU SHOULD HAVE RECEIVED A COPY OF THE GNU GENERAL PUBLIC LICENSE\n# ALONG WITH THIS PROGRAM; IF NOT, WRITE TO EDF R&D CODE_ASTER,\n#    1 AVENUE DU GENERAL DE GAULLE, 92141 CLAMART CEDEX, FRANCE.\n# ======================================================================\nDEBUT(CODE=_F(NIV_PUB_WEB='INTERNET'), DEBUG=_F(SDVERI='OUI'))\n\n# VALIDATION DE POST_RCCM B3200 (PMPB, SN et FATIGUE)\nCOURFATA = FORMULE(NOM_PARA='SIGM', VALE='5.E5/SIGM ')\n\nL_INST = DEFI_LIST_REEL(DEBUT=1.0, INTERVALLE=_F(JUSQU_A=1000.0, PAS=1.0))\n\nFWOHLER = CALC_FONC_INTERP(FONCTION=COURFATA, LIST_PARA=L_INST, NOM_PARA='SIGM', NOM_RESU='NADM', PROL_DROITE='LINEAIRE', PROL_GAUCHE='CONSTANT')\n\nMAT = DEFI_MATERIAU(ELAS=_F(ALPHA=1e-05, E=200000.0, NU=0.3), FATIGUE=_F(E_REFE=200000.0, WOHLER=FWOHLER), RCCM=_F(M_KE=2.0, N_KE=0.2, SM=2000.0, SY_02=200.0))\n\n# CONTRAINTES \"MX\"    (SIG POUR ASBSCUR=0)\nT_MX = LIRE_TABLE(FORMAT='ASTER', NUME_TABLE=1, SEPARATEUR=' ', UNITE=35)\n\n# CONTRAINTES \"MY\"     (SIG POUR ASBSCUR=0.5)\nT_MY = LIRE_TABLE(FORMAT='ASTER', NUME_TABLE=2, SEPARATEUR=' ', UNITE=35)\n\n# CONTRAINTES \"MZ\"     (SIG POUR ASBSCUR=1)\nT_MZ = LIRE_TABLE(FORMAT='ASTER', NUME_TABLE=3, SEPARATEUR=' ', UNITE=35)\n\n#  CONTRAINTES \"PRES\"\nT_PRES = LIRE_TABLE(FORMAT='ASTER', NUME_TABLE=4, SEPARATEUR=' ', UNITE=35)\n\n#  CONTRAINTES THERMIQUE (SITUATION 1)\nT_THER = LIRE_TABLE(FORMAT='ASTER', NUME_TABLE=5, SEPARATEUR=' ', UNITE=35)\n\n#  CONTRAINTES THERMIQUE (SITUATION 3)\nT_THER2 = LIRE_TABLE(FORMAT='ASTER', NUME_TABLE=6, SEPARATEUR=' ', UNITE=35)\n\n# VALIDATION DU CALCUL DE PM ET PB\nPMPB1 = POST_RCCM(CHAR_MECA=(_F(MX=1.0, MY=0.5, MZ=0.0, NOM_CHAR='ETAT A - SITU1', NUME_CHAR=1), _F(MX=1.0, MY=2.0, MZ=3.0, NOM_CHAR='ETAT B - SITU1', NUME_CHAR=2)), INFO=2, MATER=MAT, OPTION='PM_PB', RESU_MECA_UNIT=_F(TABL_MX=T_MX, TABL_MY=T_MY, TABL_MZ=T_MZ, TABL_PRES=T_PRES), RESU_THER=(_F(NUME_RESU_THER=1, TABL_RESU_THER=T_THER), _F(NUME_RESU_THER=2, TABL_RESU_THER=T_THER2)), SITUATION=_F(CHAR_ETAT_A=1, CHAR_ETAT_B=2, NB_OCCUR=1, NOM_SITU='Situation 1', NUME_GROUPE=1, NUME_SITU=1, PRES_A=0, PRES_B=0), TYPE_RESU='DETAILS', TYPE_RESU_MECA='B3200')\n\nPMPB2 = POST_RCCM(CHAR_MECA=(_F(MX=0.0, MY=0.0, MZ=0.0, NOM_CHAR='ETAT A - SITU2', NUME_CHAR=3), _F(MX=2.0, MY=0.5, MZ=-1.0, NOM_CHAR='ETAT B - SITU2', NUME_CHAR=4)), INFO=1, MATER=MAT, OPTION='PM_PB', RESU_MECA_UNIT=_F(TABL_MX=T_MX, TABL_MY=T_MY, TABL_MZ=T_MZ, TABL_PRES=T_PRES), SITUATION=_F(CHAR_ETAT_A=3, CHAR_ETAT_B=4, NB_OCCUR=1, NOM_SITU='Situation 2', NUME_GROUPE=1, NUME_SITU=2, PRES_A=0, PRES_B=0), TYPE_RESU='DETAILS', TYPE_RESU_MECA='B3200')\n\n# VALIDATION DU CALCUL DE SN ET DE SN*\nSN1 = POST_RCCM(CHAR_MECA=(_F(MX=1.0, MY=0.5, MZ=0.0, NOM_CHAR='ETAT A - SITU1', NUME_CHAR=1), _F(MX=1.0, MY=2.0, MZ=3.0, NOM_CHAR='ETAT B - SITU1', NUME_CHAR=2)), INFO=2, MATER=MAT, OPTION='SN', RESU_MECA_UNIT=_F(TABL_MX=T_MX, TABL_MY=T_MY, TABL_MZ=T_MZ, TABL_PRES=T_PRES), RESU_THER=(_F(NUME_RESU_THER=1, TABL_RESU_THER=T_THER), _F(NUME_RESU_THER=2, TABL_RESU_THER=T_THER2)), SITUATION=_F(CHAR_ETAT_A=1, CHAR_ETAT_B=2, NB_OCCUR=1, NOM_SITU='Situation 1', NUME_GROUPE=1, NUME_RESU_THER=1, NUME_SITU=1, PRES_A=0, PRES_B=0), TYPE_RESU='DETAILS', TYPE_RESU_MECA='B3200')\n\nSN2 = POST_RCCM(CHAR_MECA=(_F(MX=0.0, MY=0.0, MZ=0.0, NOM_CHAR='ETAT A - SITU2', NUME_CHAR=3), _F(MX=2.0, MY=0.5, MZ=-1.0, NOM_CHAR='ETAT B - SITU2', NUME_CHAR=4)), INFO=2, MATER=MAT, OPTION='SN', RESU_MECA_UNIT=_F(TABL_MX=T_MX, TABL_MY=T_MY, TABL_MZ=T_MZ, TABL_PRES=T_PRES), SITUATION=_F(CHAR_ETAT_A=3, CHAR_ETAT_B=4, NB_OCCUR=1, NOM_SITU='Situation 2', NUME_GROUPE=1, NUME_SITU=2, PRES_A=0, PRES_B=0), TYPE_RESU='DETAILS', TYPE_RESU_MECA='B3200')\n\nSN3 = POST_RCCM(CHAR_MECA=(_F(MX=0.0, MY=0.0, MZ=0.0, NOM_CHAR='ETAT A - SITU2', NUME_CHAR=3), _F(MX=2.0, MY=0.5, MZ=-1.0, NOM_CHAR='ETAT B - SITU2', NUME_CHAR=4)), INFO=1, MATER=MAT, OPTION='SN', RESU_MECA_UNIT=_F(TABL_MX=T_MX, TABL_MY=T_MY, TABL_MZ=T_MZ, TABL_PRES=T_PRES), RESU_THER=(_F(NUME_RESU_THER=1, TABL_RESU_THER=T_THER), _F(NUME_RESU_THER=2, TABL_RESU_THER=T_THER2)), SITUATION=_F(CHAR_ETAT_A=3, CHAR_ETAT_B=4, NB_OCCUR=1, NOM_SITU='Situation 3', NUME_GROUPE=1, NUME_RESU_THER=2, NUME_SITU=2, PRES_A=0, PRES_B=0), TYPE_RESU='DETAILS', TYPE_RESU_MECA='B3200')\n\n# VALIDATION DU CALCUL EN FATIGUE : SITUATION 1 + SITUATION 2\nFAT12_A = POST_RCCM(CHAR_MECA=(_F(MX=1.0, MY=0.5, MZ=0.0, NOM_CHAR='ETAT A - SITU1', NUME_CHAR=1), _F(MX=1.0, MY=2.0, MZ=3.0, NOM_CHAR='ETAT B - SITU1', NUME_CHAR=2), _F(MX=0.0, MY=0.0, MZ=0.0, NOM_CHAR='ETAT A - SITU2', NUME_CHAR=3), _F(MX=2.0, MY=0.5, MZ=-1.0, NOM_CHAR='ETAT B - SITU2', NUME_CHAR=4)), INFO=2, MATER=MAT, OPTION='FATIGUE', RESU_MECA_UNIT=_F(TABL_MX=T_MX, TABL_MY=T_MY, TABL_MZ=T_MZ, TABL_PRES=T_PRES), RESU_THER=(_F(NUME_RESU_THER=1, TABL_RESU_THER=T_THER), _F(NUME_RESU_THER=2, TABL_RESU_THER=T_THER2)), SITUATION=(_F(CHAR_ETAT_A=1, CHAR_ETAT_B=2, NB_OCCUR=1, NOM_SITU='Situation 1', NUME_GROUPE=1, NUME_RESU_THER=1, NUME_SITU=1, PRES_A=0, PRES_B=0), _F(CHAR_ETAT_A=3, CHAR_ETAT_B=4, NB_OCCUR=1, NOM_SITU='Situation 2', NUME_GROUPE=1, NUME_SITU=2, PRES_A=0, PRES_B=0)), TYPE_KE='KE_MECA', TYPE_RESU='DETAILS', TYPE_RESU_MECA='B3200')\n\nFAT12_B = POST_RCCM(CHAR_MECA=(_F(MX=1.0, MY=0.5, MZ=0.0, NOM_CHAR='ETAT A - SITU1', NUME_CHAR=1), _F(MX=1.0, MY=2.0, MZ=3.0, NOM_CHAR='ETAT B - SITU1', NUME_CHAR=2), _F(MX=0.0, MY=0.0, MZ=0.0, NOM_CHAR='ETAT A - SITU2', NUME_CHAR=3), _F(MX=2.0, MY=0.5, MZ=-1.0, NOM_CHAR='ETAT B - SITU2', NUME_CHAR=4)), INFO=2, MATER=MAT, OPTION='FATIGUE', RESU_MECA_UNIT=_F(TABL_MX=T_MX, TABL_MY=T_MY, TABL_MZ=T_MZ, TABL_PRES=T_PRES), RESU_THER=(_F(NUME_RESU_THER=1, TABL_RESU_THER=T_THER), _F(NUME_RESU_THER=2, TABL_RESU_THER=T_THER2)), SITUATION=(_F(CHAR_ETAT_A=1, CHAR_ETAT_B=2, NB_OCCUR=1, NOM_SITU='Situation 1', NUME_GROUPE=1, NUME_RESU_THER=1, NUME_SITU=1, PRES_A=0, PRES_B=0), _F(CHAR_ETAT_A=3, CHAR_ETAT_B=4, NB_OCCUR=10, NOM_SITU='Situation 2', NUME_GROUPE=1, NUME_SITU=2, PRES_A=0, PRES_B=0)), TYPE_KE='KE_MECA', TYPE_RESU='DETAILS', TYPE_RESU_MECA='B3200')\n\n# VALIDATION DU CALCUL EN FATIGUE : SITUATION 1 + SITUATION 3\nFAT13_A = POST_RCCM(CHAR_MECA=(_F(MX=1.0, MY=0.5, MZ=0.0, NOM_CHAR='ETAT A - SITU1', NUME_CHAR=1), _F(MX=1.0, MY=2.0, MZ=3.0, NOM_CHAR='ETAT B - SITU1', NUME_CHAR=2), _F(MX=0.0, MY=0.0, MZ=0.0, NOM_CHAR='ETAT A - SITU2', NUME_CHAR=3), _F(MX=2.0, MY=0.5, MZ=-1.0, NOM_CHAR='ETAT B - SITU2', NUME_CHAR=4)), INFO=2, MATER=MAT, OPTION='FATIGUE', RESU_MECA_UNIT=_F(TABL_MX=T_MX, TABL_MY=T_MY, TABL_MZ=T_MZ, TABL_PRES=T_PRES), RESU_THER=(_F(NUME_RESU_THER=1, TABL_RESU_THER=T_THER), _F(NUME_RESU_THER=2, TABL_RESU_THER=T_THER2)), SITUATION=(_F(CHAR_ETAT_A=1, CHAR_ETAT_B=2, NB_OCCUR=1, NOM_SITU='Situation 1', NUME_GROUPE=1, NUME_RESU_THER=1, NUME_SITU=1, PRES_A=0, PRES_B=0), _F(CHAR_ETAT_A=3, CHAR_ETAT_B=4, NB_OCCUR=1, NOM_SITU='Situation 3', NUME_GROUPE=1, NUME_RESU_THER=2, NUME_SITU=3, PRES_A=0, PRES_B=0)), TYPE_KE='KE_MECA', TYPE_RESU='DETAILS', TYPE_RESU_MECA='B3200')\n\n# VALIDATION DU CALCUL EN FATIGUE : SITUATION 1 + SITUATION 3\n# AVEC INFO=2 et NOCC_SIT2 = 10\nFAT13_B = POST_RCCM(CHAR_MECA=(_F(MX=1.0, MY=0.5, MZ=0.0, NOM_CHAR='ETAT A - SITU1', NUME_CHAR=1), _F(MX=1.0, MY=2.0, MZ=3.0, NOM_CHAR='ETAT B - SITU1', NUME_CHAR=2), _F(MX=0.0, MY=0.0, MZ=0.0, NOM_CHAR='ETAT A - SITU2', NUME_CHAR=3), _F(MX=2.0, MY=0.5, MZ=-1.0, NOM_CHAR='ETAT B - SITU2', NUME_CHAR=4)), INFO=1, MATER=MAT, OPTION='FATIGUE', RESU_MECA_UNIT=_F(TABL_MX=T_MX, TABL_MY=T_MY, TABL_MZ=T_MZ, TABL_PRES=T_PRES), RESU_THER=(_F(NUME_RESU_THER=1, TABL_RESU_THER=T_THER), _F(NUME_RESU_THER=2, TABL_RESU_THER=T_THER2)), SITUATION=(_F(CHAR_ETAT_A=1, CHAR_ETAT_B=2, NB_OCCUR=1, NOM_SITU='Situation 1', NUME_GROUPE=1, NUME_RESU_THER=1, NUME_SITU=1, PRES_A=0, PRES_B=0), _F(CHAR_ETAT_A=3, CHAR_ETAT_B=4, NB_OCCUR=10, NOM_SITU='Situation 3', NUME_GROUPE=1, NUME_RESU_THER=2, NUME_SITU=3, PRES_A=0, PRES_B=0)), TYPE_KE='KE_MECA', TYPE_RESU='DETAILS', TYPE_RESU_MECA='B3200')\n\nIMPR_TABLE(TABLE=PMPB1, UNITE=8)\n\nIMPR_TABLE(TABLE=PMPB2, UNITE=8)\n\nIMPR_TABLE(TABLE=SN1, UNITE=8)\n\nIMPR_TABLE(TABLE=SN2, UNITE=8)\n\nIMPR_TABLE(TABLE=SN3, UNITE=8)\n\nIMPR_TABLE(TABLE=FAT12_A, UNITE=8)\n\nIMPR_TABLE(TABLE=FAT12_B, UNITE=8)\n\nIMPR_TABLE(TABLE=FAT13_A, UNITE=8)\n\nIMPR_TABLE(TABLE=FAT13_B, UNITE=8)\n\n# -------------------------------------------------------------------------------\n#   TEST (SOLUTION DE REFERENCE ANALYTIQUE)\n# --------------------------------------------------------------------------------\n# PM_PB - SITUATION 1\nTEST_TABLE(NOM_PARA='PM_MAX', REFERENCE='ANALYTIQUE', TABLE=PMPB1, TYPE_TEST='MAX', VALE_CALC=200.0, VALE_REFE=200.0)\n\nTEST_TABLE(NOM_PARA='PB_MAX', REFERENCE='ANALYTIQUE', TABLE=PMPB1, TYPE_TEST='MAX', VALE_CALC=100.0, VALE_REFE=100.0)\n\nTEST_TABLE(FILTRE=_F(NOM_PARA='LIEU', VALE_K='ORIG'), NOM_PARA='PMPB_MAX', REFERENCE='ANALYTIQUE', TABLE=PMPB1, VALE_CALC=100.0, VALE_REFE=100.0)\n\nTEST_TABLE(FILTRE=_F(NOM_PARA='LIEU', VALE_K='EXTR'), NOM_PARA='PMPB_MAX', REFERENCE='ANALYTIQUE', TABLE=PMPB1, VALE_CALC=300.0, VALE_REFE=300.0)\n\n# PM_PB - SITUATION 2\nTEST_TABLE(NOM_PARA='PM_MAX', REFERENCE='ANALYTIQUE', TABLE=PMPB2, TYPE_TEST='MAX', VALE_CALC=50.0, VALE_REFE=50.0)\n\nTEST_TABLE(NOM_PARA='PB_MAX', REFERENCE='ANALYTIQUE', TABLE=PMPB2, TYPE_TEST='MAX', VALE_CALC=150.0, VALE_REFE=150.0)\n\nTEST_TABLE(FILTRE=_F(NOM_PARA='LIEU', VALE_K='ORIG'), NOM_PARA='PMPB_MAX', REFERENCE='ANALYTIQUE', TABLE=PMPB2, VALE_CALC=200.0, VALE_REFE=200.0)\n\nTEST_TABLE(FILTRE=_F(NOM_PARA='LIEU', VALE_K='EXTR'), NOM_PARA='PMPB_MAX', REFERENCE='ANALYTIQUE', TABLE=PMPB2, VALE_CALC=100.0, VALE_REFE=100.0)\n\n# SN - SITUATION 1\nTEST_TABLE(FILTRE=_F(NOM_PARA='LIEU', VALE_K='ORIG'), NOM_PARA='SN_MAX', REFERENCE='ANALYTIQUE', TABLE=SN1, VALE_CALC=200.0, VALE_REFE=200.0)\n\nTEST_TABLE(FILTRE=_F(NOM_PARA='LIEU', VALE_K='EXTR'), NOM_PARA='SN_MAX', REFERENCE='ANALYTIQUE', TABLE=SN1, VALE_CALC=725.0, VALE_REFE=725.0)\n\nTEST_TABLE(FILTRE=_F(NOM_PARA='LIEU', VALE_K='ORIG'), NOM_PARA='SN*_MAX', REFERENCE='ANALYTIQUE', TABLE=SN1, VALE_CALC=250.0, VALE_REFE=250.0)\n\nTEST_TABLE(FILTRE=_F(NOM_PARA='LIEU', VALE_K='EXTR'), NOM_PARA='SN*_MAX', REFERENCE='ANALYTIQUE', TABLE=SN1, VALE_CALC=575.0, VALE_REFE=575.0)\n\n# SN - SITUATION 2\nTEST_TABLE(FILTRE=_F(NOM_PARA='LIEU', VALE_K='ORIG'), NOM_PARA='SN_MAX', REFERENCE='ANALYTIQUE', TABLE=SN2, VALE_CALC=200.0, VALE_REFE=200.0)\n\nTEST_TABLE(FILTRE=_F(NOM_PARA='LIEU', VALE_K='EXTR'), NOM_PARA='SN_MAX', REFERENCE='ANALYTIQUE', TABLE=SN2, VALE_CALC=100.0, VALE_REFE=100.0)\n\n# SN - SITUATION 3\nTEST_TABLE(FILTRE=_F(NOM_PARA='LIEU', VALE_K='ORIG'), NOM_PARA='SN_MAX', REFERENCE='ANALYTIQUE', TABLE=SN3, VALE_CALC=250.0, VALE_REFE=250.0)\n\nTEST_TABLE(FILTRE=_F(NOM_PARA='LIEU', VALE_K='EXTR'), NOM_PARA='SN_MAX', REFERENCE='ANALYTIQUE', TABLE=SN3, VALE_CALC=150.0, VALE_REFE=150.0)\n\nTEST_TABLE(FILTRE=_F(NOM_PARA='LIEU', VALE_K='ORIG'), NOM_PARA='SN*_MAX', REFERENCE='ANALYTIQUE', TABLE=SN3, VALE_CALC=200.0, VALE_REFE=200.0)\n\nTEST_TABLE(FILTRE=_F(NOM_PARA='LIEU', VALE_K='EXTR'), NOM_PARA='SN*_MAX', REFERENCE='ANALYTIQUE', TABLE=SN3, VALE_CALC=100.0, VALE_REFE=100.0)\n\n# FATIGUE - SITUATION 1 + SITUATION 2\nTEST_TABLE(FILTRE=_F(NOM_PARA='LIEU', VALE_K='ORIG'), NOM_PARA='FU_CUMU', REFERENCE='ANALYTIQUE', TABLE=FAT12_A, VALE_CALC=0.0004, VALE_REFE=0.0004)\n\nTEST_TABLE(FILTRE=_F(NOM_PARA='LIEU', VALE_K='EXTR'), NOM_PARA='FU_CUMU', REFERENCE='ANALYTIQUE', TABLE=FAT12_A, VALE_CALC=0.0012, VALE_REFE=0.0012)\n\nTEST_TABLE(FILTRE=_F(NOM_PARA='LIEU', VALE_K='ORIG'), NOM_PARA='FU_CUMU', REFERENCE='ANALYTIQUE', TABLE=FAT12_B, VALE_CALC=0.0022, VALE_REFE=0.0022)\n\nTEST_TABLE(FILTRE=_F(NOM_PARA='LIEU', VALE_K='EXTR'), NOM_PARA='FU_CUMU', REFERENCE='ANALYTIQUE', TABLE=FAT12_B, VALE_CALC=0.0021, VALE_REFE=0.0021)\n\n# FATIGUE - SITUATION 1 + SITUATION 3\nTEST_TABLE(FILTRE=_F(NOM_PARA='LIEU', VALE_K='ORIG'), NOM_PARA='FU_CUMU', REFERENCE='ANALYTIQUE', TABLE=FAT13_A, VALE_CALC=0.00045, VALE_REFE=0.00045)\n\nTEST_TABLE(FILTRE=_F(NOM_PARA='LIEU', VALE_K='EXTR'), NOM_PARA='FU_CUMU', REFERENCE='ANALYTIQUE', TABLE=FAT13_A, VALE_CALC=0.00085, VALE_REFE=0.00085)\n\nTEST_TABLE(FILTRE=_F(NOM_PARA='LIEU', VALE_K='ORIG'), NOM_PARA='FU_CUMU', REFERENCE='ANALYTIQUE', TABLE=FAT13_B, VALE_CALC=0.0027, VALE_REFE=0.0027)\n\nTEST_TABLE(FILTRE=_F(NOM_PARA='LIEU', VALE_K='EXTR'), NOM_PARA='FU_CUMU', REFERENCE='ANALYTIQUE', TABLE=FAT13_B, VALE_CALC=0.0022, VALE_REFE=0.0022)\n\nFIN()",
        "files": [
          {
            "handle": 35,
            "filename": "/dn27/users_Linux/apo/aster/asterstudy/README",
            "attr": 1
          },
          {
            "handle": 8,
            "attr": 2
          }
        ],
        "result": {
          "job": {}
        },
        "uid": 1
      },
      {
        "name": "rccm01b.com0",
        "text": "# COPYRIGHT (C) 1991 - 2016  EDF R&D                WWW.CODE-ASTER.ORG\n# \n# THIS PROGRAM IS FREE SOFTWARE; YOU CAN REDISTRIBUTE IT AND/OR MODIFY\n# IT UNDER THE TERMS OF THE GNU GENERAL PUBLIC LICENSE AS PUBLISHED BY\n# THE FREE SOFTWARE FOUNDATION; EITHER VERSION 2 OF THE LICENSE, OR\n# (AT YOUR OPTION) ANY LATER VERSION.\n# \n# THIS PROGRAM IS DISTRIBUTED IN THE HOPE THAT IT WILL BE USEFUL, BUT\n# WITHOUT ANY WARRANTY; WITHOUT EVEN THE IMPLIED WARRANTY OF\n# MERCHANTABILITY OR FITNESS FOR A PARTICULAR PURPOSE. SEE THE GNU\n# GENERAL PUBLIC LICENSE FOR MORE DETAILS.\n# \n# YOU SHOULD HAVE RECEIVED A COPY OF THE GNU GENERAL PUBLIC LICENSE\n# ALONG WITH THIS PROGRAM; IF NOT, WRITE TO EDF R&D CODE_ASTER,\n# 1 AVENUE DU GENERAL DE GAULLE, 92141 CLAMART CEDEX, FRANCE.\nPOURSUITE(CODE='OUI')\n\n# VALIDATION DU CALCUL EN FATIGUE AVEC SEISME\n# VALIDATION DU CALCUL EN FATIGUE : SITUATION 1 + SITUATION 2 + SEISME\nFAT12_AS = POST_RCCM(CHAR_MECA=(_F(MX=1.0, MY=0.5, MZ=0.0, NOM_CHAR='ETAT A - SITU1', NUME_CHAR=1), _F(MX=1.0, MY=2.0, MZ=3.0, NOM_CHAR='ETAT B - SITU1', NUME_CHAR=2), _F(MX=0.0, MY=0.0, MZ=0.0, NOM_CHAR='ETAT A - SITU2', NUME_CHAR=3), _F(MX=2.0, MY=0.5, MZ=-1.0, NOM_CHAR='ETAT B - SITU2', NUME_CHAR=4), _F(MX=2.0, MY=0.5, MZ=1.0, NOM_CHAR='SEISME', NUME_CHAR=5)), INFO=2, MATER=MAT, OPTION='FATIGUE', RESU_MECA_UNIT=_F(TABL_MX=T_MX, TABL_MY=T_MY, TABL_MZ=T_MZ, TABL_PRES=T_PRES), RESU_THER=(_F(NUME_RESU_THER=1, TABL_RESU_THER=T_THER), _F(NUME_RESU_THER=2, TABL_RESU_THER=T_THER2)), SEISME=_F(CHAR_ETAT=5, NB_CYCL_SEISME=10, NB_OCCUR=2, NOM_SITU='Situation de seimse', NUME_SITU=3), SITUATION=(_F(CHAR_ETAT_A=1, CHAR_ETAT_B=2, NB_OCCUR=1, NOM_SITU='Situation 1', NUME_GROUPE=1, NUME_RESU_THER=1, NUME_SITU=1, PRES_A=0, PRES_B=0), _F(CHAR_ETAT_A=3, CHAR_ETAT_B=4, NB_OCCUR=1, NOM_SITU='Situation 2', NUME_GROUPE=1, NUME_SITU=2, PRES_A=0, PRES_B=0)), TYPE_KE='KE_MECA', TYPE_RESU='DETAILS', TYPE_RESU_MECA='B3200')\n\nFAT12_BS = POST_RCCM(CHAR_MECA=(_F(MX=1.0, MY=0.5, MZ=0.0, NOM_CHAR='ETAT A - SITU1', NUME_CHAR=1), _F(MX=1.0, MY=2.0, MZ=3.0, NOM_CHAR='ETAT B - SITU1', NUME_CHAR=2), _F(MX=0.0, MY=0.0, MZ=0.0, NOM_CHAR='ETAT A - SITU2', NUME_CHAR=3), _F(MX=2.0, MY=0.5, MZ=-1.0, NOM_CHAR='ETAT B - SITU2', NUME_CHAR=4), _F(MX=2.0, MY=0.5, MZ=1.0, NOM_CHAR='SEISME', NUME_CHAR=5)), INFO=2, MATER=MAT, OPTION='FATIGUE', RESU_MECA_UNIT=_F(TABL_MX=T_MX, TABL_MY=T_MY, TABL_MZ=T_MZ, TABL_PRES=T_PRES), RESU_THER=(_F(NUME_RESU_THER=1, TABL_RESU_THER=T_THER), _F(NUME_RESU_THER=2, TABL_RESU_THER=T_THER2)), SEISME=_F(CHAR_ETAT=5, NB_CYCL_SEISME=10, NB_OCCUR=4, NOM_SITU='Situation de seimse', NUME_SITU=3), SITUATION=(_F(CHAR_ETAT_A=1, CHAR_ETAT_B=2, NB_OCCUR=1, NOM_SITU='Situation 1', NUME_GROUPE=1, NUME_RESU_THER=1, NUME_SITU=1, PRES_A=0, PRES_B=0), _F(CHAR_ETAT_A=3, CHAR_ETAT_B=4, NB_OCCUR=10, NOM_SITU='Situation 2', NUME_GROUPE=1, NUME_SITU=2, PRES_A=0, PRES_B=0)), TYPE_KE='KE_MECA', TYPE_RESU='DETAILS', TYPE_RESU_MECA='B3200')\n\nIMPR_TABLE(TABLE=FAT12_AS, UNITE=8)\n\nIMPR_TABLE(TABLE=FAT12_BS, UNITE=8)\n\n# -------------------------------------------------------------------------------\n#   TEST (SOLUTION DE REFERENCE ANALYTIQUE)\n# --------------------------------------------------------------------------------\n# FATIGUE - SITUATION 1 + SITUATION 2 + SEISME\nTEST_TABLE(FILTRE=_F(NOM_PARA='LIEU', VALE_K='ORIG'), NOM_PARA='FU_CUMU', REFERENCE='ANALYTIQUE', TABLE=FAT12_AS, VALE_CALC=0.0092, VALE_REFE=0.0092)\n\nTEST_TABLE(FILTRE=_F(NOM_PARA='LIEU', VALE_K='EXTR'), NOM_PARA='FU_CUMU', REFERENCE='ANALYTIQUE', TABLE=FAT12_AS, VALE_CALC=0.0066, VALE_REFE=0.0066)\n\nTEST_TABLE(FILTRE=_F(NOM_PARA='LIEU', VALE_K='ORIG'), NOM_PARA='FU_CUMU', REFERENCE='ANALYTIQUE', TABLE=FAT12_BS, VALE_CALC=0.0192, VALE_REFE=0.0192)\n\nTEST_TABLE(FILTRE=_F(NOM_PARA='LIEU', VALE_K='EXTR'), NOM_PARA='FU_CUMU', REFERENCE='ANALYTIQUE', TABLE=FAT12_BS, VALE_CALC=0.0122, VALE_REFE=0.0122)\n\nFIN()",
        "files": [
          {
            "handle": 8,
            "attr": 2
          }
        ],
        "result": {
          "job": {}
        },
        "uid": 2
      },
      {
        "name": "rccm01b.com1",
        "text": "# COPYRIGHT (C) 1991 - 2016  EDF R&D                WWW.CODE-ASTER.ORG\n# \n# THIS PROGRAM IS FREE SOFTWARE; YOU CAN REDISTRIBUTE IT AND/OR MODIFY\n# IT UNDER THE TERMS OF THE GNU GENERAL PUBLIC LICENSE AS PUBLISHED BY\n# THE FREE SOFTWARE FOUNDATION; EITHER VERSION 2 OF THE LICENSE, OR\n# (AT YOUR OPTION) ANY LATER VERSION.\n# \n# THIS PROGRAM IS DISTRIBUTED IN THE HOPE THAT IT WILL BE USEFUL, BUT\n# WITHOUT ANY WARRANTY; WITHOUT EVEN THE IMPLIED WARRANTY OF\n# MERCHANTABILITY OR FITNESS FOR A PARTICULAR PURPOSE. SEE THE GNU\n# GENERAL PUBLIC LICENSE FOR MORE DETAILS.\n# \n# YOU SHOULD HAVE RECEIVED A COPY OF THE GNU GENERAL PUBLIC LICENSE\n# ALONG WITH THIS PROGRAM; IF NOT, WRITE TO EDF R&D CODE_ASTER,\n# 1 AVENUE DU GENERAL DE GAULLE, 92141 CLAMART CEDEX, FRANCE.\nPOURSUITE(CODE='OUI')\n\n# VALIDATION DU CALCUL EN FATIGUE AVEC KE_MIXTE\n# SITUATION 1 + SITUATION 2\nFAT12_AM = POST_RCCM(CHAR_MECA=(_F(MX=1.0, MY=0.5, MZ=0.0, NOM_CHAR='ETAT A - SITU1', NUME_CHAR=1), _F(MX=1.0, MY=2.0, MZ=3.0, NOM_CHAR='ETAT B - SITU1', NUME_CHAR=2), _F(MX=0.0, MY=0.0, MZ=0.0, NOM_CHAR='ETAT A - SITU2', NUME_CHAR=3), _F(MX=2.0, MY=0.5, MZ=-1.0, NOM_CHAR='ETAT B - SITU2', NUME_CHAR=4)), INFO=2, MATER=MAT, OPTION='FATIGUE', RESU_MECA_UNIT=_F(TABL_MX=T_MX, TABL_MY=T_MY, TABL_MZ=T_MZ, TABL_PRES=T_PRES), RESU_THER=(_F(NUME_RESU_THER=1, TABL_RESU_THER=T_THER), _F(NUME_RESU_THER=2, TABL_RESU_THER=T_THER2)), SITUATION=(_F(CHAR_ETAT_A=1, CHAR_ETAT_B=2, NB_OCCUR=1, NOM_SITU='Situation 1', NUME_GROUPE=1, NUME_RESU_THER=1, NUME_SITU=1, PRES_A=0, PRES_B=0), _F(CHAR_ETAT_A=3, CHAR_ETAT_B=4, NB_OCCUR=1, NOM_SITU='Situation 2', NUME_GROUPE=1, NUME_SITU=2, PRES_A=0, PRES_B=0)), TYPE_KE='KE_MIXTE', TYPE_RESU='DETAILS', TYPE_RESU_MECA='B3200')\n\n# SITUATION 1 + SITUATION 3\nFAT13_BM = POST_RCCM(CHAR_MECA=(_F(MX=1.0, MY=0.5, MZ=0.0, NOM_CHAR='ETAT A - SITU1', NUME_CHAR=1), _F(MX=1.0, MY=2.0, MZ=3.0, NOM_CHAR='ETAT B - SITU1', NUME_CHAR=2), _F(MX=0.0, MY=0.0, MZ=0.0, NOM_CHAR='ETAT A - SITU2', NUME_CHAR=3), _F(MX=2.0, MY=0.5, MZ=-1.0, NOM_CHAR='ETAT B - SITU2', NUME_CHAR=4)), INFO=1, MATER=MAT, OPTION='FATIGUE', RESU_MECA_UNIT=_F(TABL_MX=T_MX, TABL_MY=T_MY, TABL_MZ=T_MZ, TABL_PRES=T_PRES), RESU_THER=(_F(NUME_RESU_THER=1, TABL_RESU_THER=T_THER), _F(NUME_RESU_THER=2, TABL_RESU_THER=T_THER2)), SITUATION=(_F(CHAR_ETAT_A=1, CHAR_ETAT_B=2, NB_OCCUR=1, NOM_SITU='Situation 1', NUME_GROUPE=1, NUME_RESU_THER=1, NUME_SITU=1, PRES_A=0, PRES_B=0), _F(CHAR_ETAT_A=3, CHAR_ETAT_B=4, NB_OCCUR=10, NOM_SITU='Situation 3', NUME_GROUPE=1, NUME_RESU_THER=2, NUME_SITU=3, PRES_A=0, PRES_B=0)), TYPE_KE='KE_MIXTE', TYPE_RESU='DETAILS', TYPE_RESU_MECA='B3200')\n\n# SITUATION 1 + SITUATION 2 + SEISME\nFAT12_MS = POST_RCCM(CHAR_MECA=(_F(MX=1.0, MY=0.5, MZ=0.0, NOM_CHAR='ETAT A - SITU1', NUME_CHAR=1), _F(MX=1.0, MY=2.0, MZ=3.0, NOM_CHAR='ETAT B - SITU1', NUME_CHAR=2), _F(MX=0.0, MY=0.0, MZ=0.0, NOM_CHAR='ETAT A - SITU2', NUME_CHAR=3), _F(MX=2.0, MY=0.5, MZ=-1.0, NOM_CHAR='ETAT B - SITU2', NUME_CHAR=4), _F(MX=2.0, MY=0.5, MZ=1.0, NOM_CHAR='SEISME', NUME_CHAR=5)), INFO=2, MATER=MAT, OPTION='FATIGUE', RESU_MECA_UNIT=_F(TABL_MX=T_MX, TABL_MY=T_MY, TABL_MZ=T_MZ, TABL_PRES=T_PRES), RESU_THER=(_F(NUME_RESU_THER=1, TABL_RESU_THER=T_THER), _F(NUME_RESU_THER=2, TABL_RESU_THER=T_THER2)), SEISME=_F(CHAR_ETAT=5, NB_CYCL_SEISME=10, NB_OCCUR=2, NOM_SITU='Situation de seimse', NUME_SITU=3), SITUATION=(_F(CHAR_ETAT_A=1, CHAR_ETAT_B=2, NB_OCCUR=1, NOM_SITU='Situation 1', NUME_GROUPE=1, NUME_RESU_THER=1, NUME_SITU=1, PRES_A=0, PRES_B=0), _F(CHAR_ETAT_A=3, CHAR_ETAT_B=4, NB_OCCUR=1, NOM_SITU='Situation 2', NUME_GROUPE=1, NUME_SITU=2, PRES_A=0, PRES_B=0)), TYPE_KE='KE_MIXTE', TYPE_RESU='DETAILS', TYPE_RESU_MECA='B3200')\n\nIMPR_TABLE(TABLE=FAT12_AM, UNITE=8)\n\nIMPR_TABLE(TABLE=FAT13_BM, UNITE=8)\n\nIMPR_TABLE(TABLE=FAT12_MS, UNITE=8)\n\n# -------------------------------------------------------------------------------\n#   TEST (SOLUTION DE REFERENCE ANALYTIQUE)\n# --------------------------------------------------------------------------------\n# FATIGUE - SITUATION 1 + SITUATION 2 / KE_MIXTE\nTEST_TABLE(FILTRE=_F(NOM_PARA='LIEU', VALE_K='ORIG'), NOM_PARA='FU_CUMU', REFERENCE='ANALYTIQUE', TABLE=FAT12_AM, VALE_CALC=0.0004, VALE_REFE=0.0004)\n\nTEST_TABLE(FILTRE=_F(NOM_PARA='LIEU', VALE_K='EXTR'), NOM_PARA='FU_CUMU', REFERENCE='ANALYTIQUE', TABLE=FAT12_AM, VALE_CALC=0.0012, VALE_REFE=0.0012000000000000001)\n\n# FATIGUE - SITUATION 1 + SITUATION 3 / KE_MIXTE\nTEST_TABLE(FILTRE=_F(NOM_PARA='LIEU', VALE_K='ORIG'), NOM_PARA='FU_CUMU', REFERENCE='ANALYTIQUE', TABLE=FAT13_BM, VALE_CALC=0.0027, VALE_REFE=0.0027)\n\nTEST_TABLE(FILTRE=_F(NOM_PARA='LIEU', VALE_K='EXTR'), NOM_PARA='FU_CUMU', REFERENCE='ANALYTIQUE', TABLE=FAT13_BM, VALE_CALC=0.0022, VALE_REFE=0.002200000000000001)\n\n# FATIGUE - SITUATION 1 + SITUATION 2 + SEISME / KE_MIXTE\nTEST_TABLE(FILTRE=_F(NOM_PARA='LIEU', VALE_K='ORIG'), NOM_PARA='FU_CUMU', REFERENCE='ANALYTIQUE', TABLE=FAT12_MS, VALE_CALC=0.0092, VALE_REFE=0.0092)\n\nTEST_TABLE(FILTRE=_F(NOM_PARA='LIEU', VALE_K='EXTR'), NOM_PARA='FU_CUMU', REFERENCE='ANALYTIQUE', TABLE=FAT12_MS, VALE_CALC=0.00660924091143, VALE_REFE=0.00660924091143)\n\nFIN()",
        "files": [
          {
            "handle": 8,
            "attr": 2
          }
        ],
        "result": {
          "job": {}
        },
        "uid": 3
      },
      {
        "name": "rccm01b.com2",
        "text": "# COPYRIGHT (C) 1991 - 2016  EDF R&D                WWW.CODE-ASTER.ORG\n# \n# THIS PROGRAM IS FREE SOFTWARE; YOU CAN REDISTRIBUTE IT AND/OR MODIFY\n# IT UNDER THE TERMS OF THE GNU GENERAL PUBLIC LICENSE AS PUBLISHED BY\n# THE FREE SOFTWARE FOUNDATION; EITHER VERSION 2 OF THE LICENSE, OR\n# (AT YOUR OPTION) ANY LATER VERSION.\n# \n# THIS PROGRAM IS DISTRIBUTED IN THE HOPE THAT IT WILL BE USEFUL, BUT\n# WITHOUT ANY WARRANTY; WITHOUT EVEN THE IMPLIED WARRANTY OF\n# MERCHANTABILITY OR FITNESS FOR A PARTICULAR PURPOSE. SEE THE GNU\n# GENERAL PUBLIC LICENSE FOR MORE DETAILS.\n# \n# YOU SHOULD HAVE RECEIVED A COPY OF THE GNU GENERAL PUBLIC LICENSE\n# ALONG WITH THIS PROGRAM; IF NOT, WRITE TO EDF R&D CODE_ASTER,\n# 1 AVENUE DU GENERAL DE GAULLE, 92141 CLAMART CEDEX, FRANCE.\nPOURSUITE(CODE='OUI')\n\n# VALIDATION DES TROIS OPTIONS AVEC TYPE_RESU='VALE_MAX'\nDETRUIRE(CONCEPT=_F(NOM=PMPB1))\n\nDETRUIRE(CONCEPT=_F(NOM=SN3))\n\nDETRUIRE(CONCEPT=_F(NOM=FAT13_B))\n\nDETRUIRE(CONCEPT=_F(NOM=FAT12_MS))\n\n# VALIDATION DU CALCUL DE PM ET PB\nPMPB1 = POST_RCCM(CHAR_MECA=(_F(MX=1.0, MY=0.5, MZ=0.0, NOM_CHAR='ETAT A - SITU1', NUME_CHAR=1), _F(MX=1.0, MY=2.0, MZ=3.0, NOM_CHAR='ETAT B - SITU1', NUME_CHAR=2)), INFO=1, MATER=MAT, OPTION='PM_PB', RESU_MECA_UNIT=_F(TABL_MX=T_MX, TABL_MY=T_MY, TABL_MZ=T_MZ, TABL_PRES=T_PRES), RESU_THER=(_F(NUME_RESU_THER=1, TABL_RESU_THER=T_THER), _F(NUME_RESU_THER=2, TABL_RESU_THER=T_THER2)), SITUATION=_F(CHAR_ETAT_A=1, CHAR_ETAT_B=2, NB_OCCUR=1, NOM_SITU='Situation 1', NUME_GROUPE=1, NUME_SITU=1, PRES_A=0, PRES_B=0), TYPE_RESU='VALE_MAX', TYPE_RESU_MECA='B3200')\n\n# VALIDATION DU CALCUL DE SN ET DE SN*\nSN3 = POST_RCCM(CHAR_MECA=(_F(MX=0.0, MY=0.0, MZ=0.0, NOM_CHAR='ETAT A - SITU2', NUME_CHAR=3), _F(MX=2.0, MY=0.5, MZ=-1.0, NOM_CHAR='ETAT B - SITU2', NUME_CHAR=4)), INFO=1, MATER=MAT, OPTION='SN', RESU_MECA_UNIT=_F(TABL_MX=T_MX, TABL_MY=T_MY, TABL_MZ=T_MZ, TABL_PRES=T_PRES), RESU_THER=(_F(NUME_RESU_THER=1, TABL_RESU_THER=T_THER), _F(NUME_RESU_THER=2, TABL_RESU_THER=T_THER2)), SITUATION=_F(CHAR_ETAT_A=3, CHAR_ETAT_B=4, NB_OCCUR=1, NOM_SITU='Situation 3', NUME_GROUPE=1, NUME_RESU_THER=2, NUME_SITU=2, PRES_A=0, PRES_B=0), TYPE_RESU='VALE_MAX', TYPE_RESU_MECA='B3200')\n\n# VALIDATION DU CALCUL EN FATIGUE : SITUATION 1 + SITUATION 3\nFAT13_B = POST_RCCM(CHAR_MECA=(_F(MX=1.0, MY=0.5, MZ=0.0, NOM_CHAR='ETAT A - SITU1', NUME_CHAR=1), _F(MX=1.0, MY=2.0, MZ=3.0, NOM_CHAR='ETAT B - SITU1', NUME_CHAR=2), _F(MX=0.0, MY=0.0, MZ=0.0, NOM_CHAR='ETAT A - SITU2', NUME_CHAR=3), _F(MX=2.0, MY=0.5, MZ=-1.0, NOM_CHAR='ETAT B - SITU2', NUME_CHAR=4)), INFO=1, MATER=MAT, OPTION='FATIGUE', RESU_MECA_UNIT=_F(TABL_MX=T_MX, TABL_MY=T_MY, TABL_MZ=T_MZ, TABL_PRES=T_PRES), RESU_THER=(_F(NUME_RESU_THER=1, TABL_RESU_THER=T_THER), _F(NUME_RESU_THER=2, TABL_RESU_THER=T_THER2)), SITUATION=(_F(CHAR_ETAT_A=1, CHAR_ETAT_B=2, NB_OCCUR=1, NOM_SITU='Situation 1', NUME_GROUPE=1, NUME_RESU_THER=1, NUME_SITU=1, PRES_A=0, PRES_B=0), _F(CHAR_ETAT_A=3, CHAR_ETAT_B=4, NB_OCCUR=10, NOM_SITU='Situation 3', NUME_GROUPE=1, NUME_RESU_THER=2, NUME_SITU=3, PRES_A=0, PRES_B=0)), TYPE_KE='KE_MECA', TYPE_RESU='VALE_MAX', TYPE_RESU_MECA='B3200')\n\n# SITUATION 1 + SITUATION 2 + SEISME\nFAT12_MS = POST_RCCM(CHAR_MECA=(_F(MX=1.0, MY=0.5, MZ=0.0, NOM_CHAR='ETAT A - SITU1', NUME_CHAR=1), _F(MX=1.0, MY=2.0, MZ=3.0, NOM_CHAR='ETAT B - SITU1', NUME_CHAR=2), _F(MX=0.0, MY=0.0, MZ=0.0, NOM_CHAR='ETAT A - SITU2', NUME_CHAR=3), _F(MX=2.0, MY=0.5, MZ=-1.0, NOM_CHAR='ETAT B - SITU2', NUME_CHAR=4), _F(MX=2.0, MY=0.5, MZ=1.0, NOM_CHAR='SEISME', NUME_CHAR=5)), INFO=2, MATER=MAT, OPTION='FATIGUE', RESU_MECA_UNIT=_F(TABL_MX=T_MX, TABL_MY=T_MY, TABL_MZ=T_MZ, TABL_PRES=T_PRES), RESU_THER=(_F(NUME_RESU_THER=1, TABL_RESU_THER=T_THER), _F(NUME_RESU_THER=2, TABL_RESU_THER=T_THER2)), SEISME=_F(CHAR_ETAT=5, NB_CYCL_SEISME=10, NB_OCCUR=2, NOM_SITU='Situation de seimse', NUME_SITU=3), SITUATION=(_F(CHAR_ETAT_A=1, CHAR_ETAT_B=2, NB_OCCUR=1, NOM_SITU='Situation 1', NUME_GROUPE=1, NUME_RESU_THER=1, NUME_SITU=1, PRES_A=0, PRES_B=0), _F(CHAR_ETAT_A=3, CHAR_ETAT_B=4, NB_OCCUR=1, NOM_SITU='Situation 2', NUME_GROUPE=1, NUME_SITU=2, PRES_A=0, PRES_B=0)), TYPE_KE='KE_MIXTE', TYPE_RESU='VALE_MAX', TYPE_RESU_MECA='B3200')\n\nIMPR_TABLE(TABLE=PMPB1, UNITE=8)\n\nIMPR_TABLE(TABLE=SN3, UNITE=8)\n\nIMPR_TABLE(TABLE=FAT13_B, UNITE=8)\n\nIMPR_TABLE(TABLE=FAT12_MS, UNITE=8)\n\n# -------------------------------------------------------------------------------\n#   TEST (SOLUTION DE REFERENCE ANALYTIQUE)\n# --------------------------------------------------------------------------------\n# PM_PB - SITUATION 1\nTEST_TABLE(NOM_PARA='PM_MAX', REFERENCE='ANALYTIQUE', TABLE=PMPB1, TYPE_TEST='MAX', VALE_CALC=200.0, VALE_REFE=200.0)\n\nTEST_TABLE(NOM_PARA='PB_MAX', REFERENCE='ANALYTIQUE', TABLE=PMPB1, TYPE_TEST='MAX', VALE_CALC=100.0, VALE_REFE=100.0)\n\nTEST_TABLE(FILTRE=_F(NOM_PARA='LIEU', VALE_K='ORIG'), NOM_PARA='PMPB_MAX', REFERENCE='ANALYTIQUE', TABLE=PMPB1, VALE_CALC=100.0, VALE_REFE=100.0)\n\nTEST_TABLE(FILTRE=_F(NOM_PARA='LIEU', VALE_K='EXTR'), NOM_PARA='PMPB_MAX', REFERENCE='ANALYTIQUE', TABLE=PMPB1, VALE_CALC=300.0, VALE_REFE=300.0)\n\n# SN - SITUATION 3\nTEST_TABLE(FILTRE=_F(NOM_PARA='LIEU', VALE_K='ORIG'), NOM_PARA='SN_MAX', REFERENCE='ANALYTIQUE', TABLE=SN3, VALE_CALC=250.0, VALE_REFE=250.0)\n\nTEST_TABLE(FILTRE=_F(NOM_PARA='LIEU', VALE_K='EXTR'), NOM_PARA='SN_MAX', REFERENCE='ANALYTIQUE', TABLE=SN3, VALE_CALC=150.0, VALE_REFE=150.0)\n\nTEST_TABLE(FILTRE=_F(NOM_PARA='LIEU', VALE_K='ORIG'), NOM_PARA='SN*_MAX', REFERENCE='ANALYTIQUE', TABLE=SN3, VALE_CALC=200.0, VALE_REFE=200.0)\n\nTEST_TABLE(FILTRE=_F(NOM_PARA='LIEU', VALE_K='EXTR'), NOM_PARA='SN*_MAX', REFERENCE='ANALYTIQUE', TABLE=SN3, VALE_CALC=100.0, VALE_REFE=100.0)\n\n# FATIGUE - SITUATION 1 + SITUATION 3\nTEST_TABLE(FILTRE=_F(NOM_PARA='LIEU', VALE_K='ORIG'), NOM_PARA='FU_CUMU', REFERENCE='ANALYTIQUE', TABLE=FAT13_B, VALE_CALC=0.0027, VALE_REFE=0.0027)\n\nTEST_TABLE(FILTRE=_F(NOM_PARA='LIEU', VALE_K='EXTR'), NOM_PARA='FU_CUMU', REFERENCE='ANALYTIQUE', TABLE=FAT13_B, VALE_CALC=0.0022, VALE_REFE=0.0022)\n\n# FATIGUE - SITUATION 1 + SITUATION 2 + SEISME / KE_MIXTE\nTEST_TABLE(FILTRE=_F(NOM_PARA='LIEU', VALE_K='ORIG'), NOM_PARA='FU_CUMU', REFERENCE='ANALYTIQUE', TABLE=FAT12_MS, VALE_CALC=0.0092, VALE_REFE=0.0092)\n\nTEST_TABLE(FILTRE=_F(NOM_PARA='LIEU', VALE_K='EXTR'), NOM_PARA='FU_CUMU', REFERENCE='ANALYTIQUE', TABLE=FAT12_MS, VALE_CALC=0.00660924091143, VALE_REFE=0.00660924091143)\n\nFIN()",
        "files": [
          {
            "handle": 8,
            "attr": 2
          }
        ],
        "result": {
          "job": {}
        },
        "uid": 4
      },
      {
        "name": "rccm01b.com3",
        "text": "# COPYRIGHT (C) 1991 - 2016  EDF R&D                WWW.CODE-ASTER.ORG\n# \n# THIS PROGRAM IS FREE SOFTWARE; YOU CAN REDISTRIBUTE IT AND/OR MODIFY\n# IT UNDER THE TERMS OF THE GNU GENERAL PUBLIC LICENSE AS PUBLISHED BY\n# THE FREE SOFTWARE FOUNDATION; EITHER VERSION 2 OF THE LICENSE, OR\n# (AT YOUR OPTION) ANY LATER VERSION.\n# \n# THIS PROGRAM IS DISTRIBUTED IN THE HOPE THAT IT WILL BE USEFUL, BUT\n# WITHOUT ANY WARRANTY; WITHOUT EVEN THE IMPLIED WARRANTY OF\n# MERCHANTABILITY OR FITNESS FOR A PARTICULAR PURPOSE. SEE THE GNU\n# GENERAL PUBLIC LICENSE FOR MORE DETAILS.\n# \n# YOU SHOULD HAVE RECEIVED A COPY OF THE GNU GENERAL PUBLIC LICENSE\n# ALONG WITH THIS PROGRAM; IF NOT, WRITE TO EDF R&D CODE_ASTER,\n# 1 AVENUE DU GENERAL DE GAULLE, 92141 CLAMART CEDEX, FRANCE.\nPOURSUITE(CODE='OUI')\n\n# VALIDATION DE L'OPTION EFAT\n#  CONTRAINTES THERMIQUE (SITUATION 1)\nT_THER3 = LIRE_TABLE(FORMAT='ASTER', NUME_TABLE=7, SEPARATEUR=' ', UNITE=35)\n\n#  CONTRAINTES THERMIQUE (SITUATION 3)\nT_THER4 = LIRE_TABLE(FORMAT='ASTER', NUME_TABLE=8, SEPARATEUR=' ', UNITE=35)\n\n#  TEMPERATURE (SITUATION 1)\nT_TEMP = LIRE_TABLE(FORMAT='ASTER', NUME_TABLE=9, SEPARATEUR=' ', UNITE=35)\n\n#  TEMPERATURE (SITUATION 3)\nT_TEMP2 = LIRE_TABLE(FORMAT='ASTER', NUME_TABLE=10, SEPARATEUR=' ', UNITE=35)\n\n#  MODULE D'YOUNG FONCTION DE LA TEMPERATURE\nT_YOUNG = LIRE_TABLE(FORMAT='ASTER', NUME_TABLE=11, SEPARATEUR=' ', UNITE=35)\n\n# VALIDATION DU CALCUL EN FATIGUE ENVIRONNNEMENTALE\nFAT13_BE = POST_RCCM(CHAR_MECA=(_F(MX=1.0, MY=0.5, MZ=0.0, NOM_CHAR='ETAT A - SITU1', NUME_CHAR=1), _F(MX=1.0, MY=2.0, MZ=3.0, NOM_CHAR='ETAT B - SITU1', NUME_CHAR=2), _F(MX=0.0, MY=0.0, MZ=0.0, NOM_CHAR='ETAT A - SITU2', NUME_CHAR=3), _F(MX=2.0, MY=0.5, MZ=-1.0, NOM_CHAR='ETAT B - SITU2', NUME_CHAR=4)), ENVIRONNEMENT=_F(A_ENV=0.0, B_ENV=1.0, CRIT_EPSI=0.01, C_ENV=0.0, FEN_INTEGRE=50.0, SEUIL_EPSI_INF=1.0, SEUIL_EPSI_SUP=2.0, SEUIL_T_INF=100.0, SEUIL_T_SUP=250.0, S_ETOILE=1.0, TABL_YOUNG=T_YOUNG, VALE_T_INF=50.0, VALE_T_MOY_DEN=50.0, VALE_T_MOY_NUM=40.0, VALE_T_SUP=300.0), INFO=1, MATER=MAT, OPTION='EFAT', RESU_MECA_UNIT=_F(TABL_MX=T_MX, TABL_MY=T_MY, TABL_MZ=T_MZ, TABL_PRES=T_PRES), RESU_THER=(_F(NUME_RESU_THER=1, TABL_RESU_THER=T_THER3), _F(NUME_RESU_THER=2, TABL_RESU_THER=T_THER4)), SITUATION=(_F(CHAR_ETAT_A=1, CHAR_ETAT_B=2, NB_OCCUR=1, NOM_SITU='Situation 1', NUME_GROUPE=1, NUME_RESU_THER=1, NUME_SITU=1, O_ETOILE=1.0, PRES_A=0, PRES_B=0, TABL_TEMP=T_TEMP, TEMP_A=20.0, TEMP_B=20.0), _F(CHAR_ETAT_A=3, CHAR_ETAT_B=4, NB_OCCUR=1, NOM_SITU='Situation 3', NUME_GROUPE=1, NUME_RESU_THER=2, NUME_SITU=3, O_ETOILE=1.0, PRES_A=0, PRES_B=0, TABL_TEMP=T_TEMP2, TEMP_A=20.0, TEMP_B=20.0)), TYPE_KE='KE_MECA', TYPE_RESU='DETAILS', TYPE_RESU_MECA='B3200')\n\nIMPR_TABLE(TABLE=FAT13_BE, UNITE=8)\n\n# -------------------------------------------------------------------------------\n#   TEST (SOLUTION DE REFERENCE ANALYTIQUE)\n# --------------------------------------------------------------------------------\n# FATIGUE ENVIRONNEMENTALE - SITUATION 1 + SITUATION 3\nTEST_TABLE(FILTRE=_F(NOM_PARA='LIEU', VALE_K='ORIG'), NOM_PARA='FEN', REFERENCE='ANALYTIQUE', TABLE=FAT13_BE, VALE_CALC=0.108818820412, VALE_REFE=0.1088)\n\nTEST_TABLE(FILTRE=_F(NOM_PARA='LIEU', VALE_K='EXTR'), NOM_PARA='FEN', REFERENCE='ANALYTIQUE', TABLE=FAT13_BE, VALE_CALC=4.4408920985e-16, VALE_REFE=4.44e-16)\n\nFIN()",
        "files": [
          {
            "handle": 35,
            "attr": 1
          },
          {
            "handle": 8,
            "attr": 2
          }
        ],
        "result": {
          "job": {}
        },
        "uid": 5
      }
    ],
    "aster": "stable",
    "versionMajor": 14,
    "versionMinor": 4
  },
  "minor": 10
}