DEBUT()

Mesh = LIRE_MAILLAGE(FORMAT='MED', NOM_MED='Mesh_recette', UNITE=20)

Mesh = MODI_MAILLAGE(
    reuse=Mesh,
    MAILLAGE=Mesh,
    ORIE_PEAU_2D=_F(GROUP_MA=('Cont_mast', 'Cont_slav'))
)

Model = AFFE_MODELE(
    AFFE=_F(MODELISATION=('C_PLAN', ), PHENOMENE='MECANIQUE', TOUT='OUI'),
    MAILLAGE=Mesh
)

Mat01 = DEFI_MATERIAU(ELAS=_F(E=2000.0, NU=0.3))

Mat02 = DEFI_MATERIAU(ELAS=_F(E=2000.0, NU=0.0))

MatF = AFFE_MATERIAU(
    AFFE=(
        _F(GROUP_MA=('Upper', ), MATER=(Mat01, )),
        _F(GROUP_MA=('Lower', ), MATER=(Mat02, ))
    ),
    MAILLAGE=Mesh,
    MODELE=Model
)

Load1 = AFFE_CHAR_CINE(
    MECA_IMPO=(
        _F(DX=0.0, GROUP_MA=('Sym_x', )), _F(DY=0.0, GROUP_MA=('Sym_y', ))
    ),
    MODELE=Model
)

Load2 = AFFE_CHAR_MECA(
    MODELE=Model, PRES_REP=_F(GROUP_MA=('Upper_face', ), PRES=25.0)
)

Cont1 = DEFI_CONTACT(
    ALGO_RESO_CONT='POINT_FIXE',
    FORMULATION='CONTINUE',
    ITER_CONT_MAXI=15,
    LISSAGE='OUI',
    MODELE=Model,
    ZONE=_F(GROUP_MA_ESCL=('Cont_slav', ), GROUP_MA_MAIT=('Cont_mast', ))
)

FIN()
