
DEBUT(CODE=_F(NIV_PUB_WEB='INTERNET'),DEBUG=_F(SDVERI='OUI'))

MAIL=LIRE_MAILLAGE(FORMAT='MED',);

MODELE=AFFE_MODELE(MAILLAGE=MAIL,
                   AFFE=_F(TOUT='OUI',
                           PHENOMENE='MECANIQUE',
                           MODELISATION='3D',),);

MAT=DEFI_MATERIAU(ELAS=_F(E=204000000000.0,
                          NU=0.3,
                          RHO=7800.0,),);

CHMAT=AFFE_MATERIAU(MAILLAGE=MAIL,
                    AFFE=_F(TOUT='OUI',
                            MATER=MAT,),);

BLOCAGE=AFFE_CHAR_MECA(MODELE=MODELE,
                       DDL_IMPO=_F(GROUP_MA='BASE',
                                   DX=0.0,
                                   DY=0.0,
                                   DZ=0.0,),);

ASSEMBLAGE(MODELE=MODELE,
                CHAM_MATER=CHMAT,
                CHARGE=BLOCAGE,
                NUME_DDL=CO('NUMEDDL'),
                MATR_ASSE=(_F(MATRICE=CO('RIGIDITE'),
                              OPTION='RIGI_MECA',),
                           _F(MATRICE=CO('MASSE'),
                              OPTION='MASS_MECA',),),);

MODES=CALC_MODES(MATR_RIGI=RIGIDITE,
                 OPTION='PLUS_PETITE',
                 CALC_FREQ=_F(NMAX_FREQ=10,
                              ),
                 MATR_MASS=MASSE,
                 )

IMPR_RESU(FORMAT='MED',
          RESU=_F(MAILLAGE=MAIL,
                  RESULTAT=MODES,
                  NOM_CHAM='DEPL',),);

FIN();
