DEBUT(LANG='FR')


E = 2.e11

nu = 0.3

F = -500.

h = 0.02

MBI = LIRE_MAILLAGE(identifier=u'4:1',
                    FORMAT='ASTER',
                    UNITE=20)

MOD = AFFE_MODELE(identifier=u'5:1',
                  AFFE=_F(GROUP_MA='POU',
                          MODELISATION='POU_D_T',
                          PHENOMENE='MECANIQUE'),
                  MAILLAGE=MBI)

CARA_POU = AFFE_CARA_ELEM(identifier=u'6:1',
                          MODELE=MOD,
                          POUTRE=_F(CARA=('H', ),
                                    GROUP_MA=('POU', ),
                                    SECTION='RECTANGLE',
                                    VALE=(h, )))

MAT = DEFI_MATERIAU(identifier=u'7:1',
                    ELAS=_F(E=E,
                            NU=nu,
                            RHO=7800.0))

CHMAT = AFFE_MATERIAU(identifier=u'8:1',
                      AFFE=_F(GROUP_MA='POU',
                              MATER=MAT),
                      MAILLAGE=MBI)

CL = AFFE_CHAR_MECA(identifier=u'9:1',
                    DDL_IMPO=_F(DRX=0,
                                DRY=0,
                                DRZ=0,
                                DX=0,
                                DY=0,
                                DZ=0,
                                GROUP_NO='Encas'),
                    MODELE=MOD)

FORCE = AFFE_CHAR_MECA(identifier=u'10:1',
                       FORCE_NODALE=_F(FZ=F,
                                       GROUP_NO='ForNod'),
                       MODELE=MOD)

reslin = MECA_STATIQUE(identifier=u'11:1',
                       CARA_ELEM=CARA_POU,
                       CHAM_MATER=CHMAT,
                       EXCIT=(_F(CHARGE=CL),
                              _F(CHARGE=FORCE)),
                       MODELE=MOD)

table = POST_RELEVE_T(identifier=u'12:1',
                      ACTION=_F(GROUP_NO=('ForNod', ),
                                INTITULE='Fleche',
                                NOM_CHAM='DEPL',
                                NOM_CMP=('DZ', ),
                                OPERATION=('EXTRACTION', ),
                                RESULTAT=reslin))

IMPR_TABLE(identifier=u'13:1',
           TABLE=table,
           UNITE=10)

IMPR_RESU(identifier=u'14:1',
          RESU=_F(RESULTAT=reslin),
          UNITE=80)

FIN()